/*--------------------------------*- C++ -*----------------------------------*\
| =========                 |                                                 |
| \\      /  F ield         | OpenFOAM: The Open Source CFD Toolbox           |
|  \\    /   O peration     | Version:  2.1.1                                 |
|   \\  /    A nd           | Web:      www.OpenFOAM.org                      |
|    \\/     M anipulation  |                                                 |
\*---------------------------------------------------------------------------*/
FoamFile
{
    version     2.0;
    format      ascii;
    class       dictionary;
    location    "system";
    object      controlDict;
}

// * * * * * * * * * * * * * * * * * * * * * * * * * * * * * * * * * * * * * //

application     passiveScalarLESBuoyantBoussinesqPimpleFoam;

startFrom       latestTime;

startTime       0;

stopAt          endTime;

endTime         5;

deltaT          2e-3;

writeControl    timeStep;

writeInterval   2500;

purgeWrite      0;

writeFormat     ascii;

writePrecision  6;

writeCompression off;

timeFormat      general;

timePrecision   6;

runTimeModifiable true;

libs ("libmypowerLawTurbulent.so");

// when reached statistically desired turbulence un-comment these functions to record data
// if desired, save at high time resolution for later spectral analysis of the probe data
// probe is a vertical line at the center of the second canyon

/*
functions
{
    probes
    {
        type            probes;
        functionObjectLibs ("libsampling.so");
        enabled         true;
        outputControl   timeStep;

        fields
        (
            U p T s k
        );

        probeLocations
        (
	    // x=0.01
            (0.01 0.5 0.001)
	    (0.01 0.5 0.005)
            (0.01 0.5 0.01)
	    (0.01 0.5 0.015)
            (0.01 0.5 0.02)
	    (0.01 0.5 0.025)
	    (0.01 0.5 0.03)
	    (0.01 0.5 0.035)
	    (0.01 0.5 0.04)
	    (0.01 0.5 0.045)
	    (0.01 0.5 0.05)
	    (0.01 0.5 0.055)
	    (0.01 0.5 0.06)
	    (0.01 0.5 0.065)
	    (0.01 0.5 0.07)
	    (0.01 0.5 0.075)
	    (0.01 0.5 0.08)
	    (0.01 0.5 0.085)
	    (0.01 0.5 0.09)
	    (0.01 0.5 0.095)
	    (0.01 0.5 0.10)
	    (0.01 0.5 0.105)
	    (0.01 0.5 0.11)
	    (0.01 0.5 0.115)
	    (0.01 0.5 0.12)
	    (0.01 0.5 0.125)
	    (0.01 0.5 0.13)
	    (0.01 0.5 0.135)
	    (0.01 0.5 0.14)
	    (0.01 0.5 0.145)
	    (0.01 0.5 0.15)
	    (0.01 0.5 0.155)
	    (0.01 0.5 0.16)
	    (0.01 0.5 0.165)
	    (0.01 0.5 0.17)
	    (0.01 0.5 0.175)
	    (0.01 0.5 0.18)
	    (0.01 0.5 0.185)
	    (0.01 0.5 0.19)
	    (0.01 0.5 0.195)
	    (0.01 0.5 0.20)
	    (0.01 0.5 0.205)
	    (0.01 0.5 0.21)
	    (0.01 0.5 0.215)
	    (0.01 0.5 0.22)
	    (0.01 0.5 0.225)
	    (0.01 0.5 0.23)
	    (0.01 0.5 0.235)
	    (0.01 0.5 0.24)
	    (0.01 0.5 0.245)
	    (0.01 0.5 0.25)
	    (0.01 0.5 0.255)
	    (0.01 0.5 0.26)
	    (0.01 0.5 0.265)
	    (0.01 0.5 0.27)
	    (0.01 0.5 0.275)
	    (0.01 0.5 0.28)
	    (0.01 0.5 0.285)
	    (0.01 0.5 0.29)
	    (0.01 0.5 0.295)
	    (0.01 0.5 0.30)
	    (0.01 0.5 0.305)
	    (0.01 0.5 0.31)
	    (0.01 0.5 0.315)
	    (0.01 0.5 0.32)
	    (0.01 0.5 0.325)
	    (0.01 0.5 0.33)
	    (0.01 0.5 0.335)
	    (0.01 0.5 0.34)
	    (0.01 0.5 0.345)
	    (0.01 0.5 0.35)
	    (0.01 0.5 0.355)
	    (0.01 0.5 0.36)
	    (0.01 0.5 0.365)
	    (0.01 0.5 0.37)
	    (0.01 0.5 0.375)
	    (0.01 0.5 0.38)
	    (0.01 0.5 0.385)
	    (0.01 0.5 0.39)
	    (0.01 0.5 0.395)
	    (0.01 0.5 0.40)
	    (0.01 0.5 0.405)
	    (0.01 0.5 0.41)
	    (0.01 0.5 0.415)
	    (0.01 0.5 0.42)
	    (0.01 0.5 0.425)
	    (0.01 0.5 0.43)
	    (0.01 0.5 0.435)
	    (0.01 0.5 0.44)
	    (0.01 0.5 0.445)
	    (0.01 0.5 0.45)
	    (0.01 0.5 0.455)
	    (0.01 0.5 0.46)
	    (0.01 0.5 0.465)
	    (0.01 0.5 0.47)
	    (0.01 0.5 0.475)
	    (0.01 0.5 0.48)
	    (0.01 0.5 0.485)
	    (0.01 0.5 0.49)
	    (0.01 0.5 0.495)
	    (0.01 0.5 0.50)
	    (0.01 0.5 0.505)
	    (0.01 0.5 0.51)
	    (0.01 0.5 0.515)
	    (0.01 0.5 0.52)
	    (0.01 0.5 0.525)
	    (0.01 0.5 0.53)
	    (0.01 0.5 0.535)
	    (0.01 0.5 0.54)
	    (0.01 0.5 0.545)
	    (0.01 0.5 0.55)
	    (0.01 0.5 0.555)
	    (0.01 0.5 0.56)
	    (0.01 0.5 0.565)
	    (0.01 0.5 0.57)
	    (0.01 0.5 0.575)
	    (0.01 0.5 0.58)
	    (0.01 0.5 0.585)
	    (0.01 0.5 0.59)
	    (0.01 0.5 0.595)
	    (0.01 0.5 0.60)
	    (0.01 0.5 0.605)
	    (0.01 0.5 0.61)
	    (0.01 0.5 0.615)
	    (0.01 0.5 0.62)
	    (0.01 0.5 0.625)
	    (0.01 0.5 0.63)
	    (0.01 0.5 0.635)
	    (0.01 0.5 0.64)
	    (0.01 0.5 0.645)
	    (0.01 0.5 0.65)
	    (0.01 0.5 0.655)
	    (0.01 0.5 0.66)
	    (0.01 0.5 0.665)
	    (0.01 0.5 0.67)
	    (0.01 0.5 0.675)
	    (0.01 0.5 0.68)
	    (0.01 0.5 0.685)
	    (0.01 0.5 0.69)
	    (0.01 0.5 0.695)
	    (0.01 0.5 0.70)
	    (0.01 0.5 0.705)
	    (0.01 0.5 0.71)
	    (0.01 0.5 0.715)
	    (0.01 0.5 0.72)
	    (0.01 0.5 0.725)
	    (0.01 0.5 0.73)
	    (0.01 0.5 0.735)
	    (0.01 0.5 0.74)
	    (0.01 0.5 0.745)
	    (0.01 0.5 0.75)
	    (0.01 0.5 0.755)
	    (0.01 0.5 0.76)
	    (0.01 0.5 0.765)
	    (0.01 0.5 0.77)
	    (0.01 0.5 0.775)
	    (0.01 0.5 0.78)
	    (0.01 0.5 0.785)
	    (0.01 0.5 0.79)
	    (0.01 0.5 0.795)
	    (0.01 0.5 0.80)
	    (0.01 0.5 0.805)
	    (0.01 0.5 0.81)
	    (0.01 0.5 0.815)
	    (0.01 0.5 0.82)
	    (0.01 0.5 0.825)
	    (0.01 0.5 0.83)
	    (0.01 0.5 0.835)
	    (0.01 0.5 0.84)
	    (0.01 0.5 0.845)
	    (0.01 0.5 0.85)
	    (0.01 0.5 0.855)
	    (0.01 0.5 0.86)
	    (0.01 0.5 0.865)
	    (0.01 0.5 0.87)
	    (0.01 0.5 0.875)
	    (0.01 0.5 0.88)
	    (0.01 0.5 0.885)
	    (0.01 0.5 0.89)
	    (0.01 0.5 0.895)
	    (0.01 0.5 0.80)
	    (0.01 0.5 0.805)
	    (0.01 0.5 0.81)
	    (0.01 0.5 0.815)
	    (0.01 0.5 0.82)
	    (0.01 0.5 0.825)
	    (0.01 0.5 0.83)
	    (0.01 0.5 0.835)
	    (0.01 0.5 0.84)
	    (0.01 0.5 0.845)
	    (0.01 0.5 0.85)
	    (0.01 0.5 0.855)
	    (0.01 0.5 0.86)
	    (0.01 0.5 0.865)
	    (0.01 0.5 0.87)
	    (0.01 0.5 0.875)
	    (0.01 0.5 0.88)
	    (0.01 0.5 0.885)
	    (0.01 0.5 0.89)
	    (0.01 0.5 0.895)
	    (0.01 0.5 0.90)
	    (0.01 0.5 0.905)
	    (0.01 0.5 0.91)
	    (0.01 0.5 0.915)
	    (0.01 0.5 0.92)
	    (0.01 0.5 0.925)
	    (0.01 0.5 0.93)
	    (0.01 0.5 0.935)
	    (0.01 0.5 0.94)
	    (0.01 0.5 0.945)
	    (0.01 0.5 0.95)
	    (0.01 0.5 0.955)
	    (0.01 0.5 0.96)
	    (0.01 0.5 0.965)
	    (0.01 0.5 0.97)
	    (0.01 0.5 0.975)
	    (0.01 0.5 0.98)
	    (0.01 0.5 0.985)
	    (0.01 0.5 0.99)
	    (0.01 0.5 0.995)

	    // x=1.00
            (1.00 0.5 0.001)
	    (1.00 0.5 0.005)
            (1.00 0.5 0.01)
	    (1.00 0.5 0.015)
            (1.00 0.5 0.02)
	    (1.00 0.5 0.025)
	    (1.00 0.5 0.03)
	    (1.00 0.5 0.035)
	    (1.00 0.5 0.04)
	    (1.00 0.5 0.045)
	    (1.00 0.5 0.05)
	    (1.00 0.5 0.055)
	    (1.00 0.5 0.06)
	    (1.00 0.5 0.065)
	    (1.00 0.5 0.07)
	    (1.00 0.5 0.075)
	    (1.00 0.5 0.08)
	    (1.00 0.5 0.085)
	    (1.00 0.5 0.09)
	    (1.00 0.5 0.095)
	    (1.00 0.5 0.10)
	    (1.00 0.5 0.105)
	    (1.00 0.5 0.11)
	    (1.00 0.5 0.115)
	    (1.00 0.5 0.12)
	    (1.00 0.5 0.125)
	    (1.00 0.5 0.13)
	    (1.00 0.5 0.135)
	    (1.00 0.5 0.14)
	    (1.00 0.5 0.145)
	    (1.00 0.5 0.15)
	    (1.00 0.5 0.155)
	    (1.00 0.5 0.16)
	    (1.00 0.5 0.165)
	    (1.00 0.5 0.17)
	    (1.00 0.5 0.175)
	    (1.00 0.5 0.18)
	    (1.00 0.5 0.185)
	    (1.00 0.5 0.19)
	    (1.00 0.5 0.195)
	    (1.00 0.5 0.20)
	    (1.00 0.5 0.205)
	    (1.00 0.5 0.21)
	    (1.00 0.5 0.215)
	    (1.00 0.5 0.22)
	    (1.00 0.5 0.225)
	    (1.00 0.5 0.23)
	    (1.00 0.5 0.235)
	    (1.00 0.5 0.24)
	    (1.00 0.5 0.245)
	    (1.00 0.5 0.25)
	    (1.00 0.5 0.255)
	    (1.00 0.5 0.26)
	    (1.00 0.5 0.265)
	    (1.00 0.5 0.27)
	    (1.00 0.5 0.275)
	    (1.00 0.5 0.28)
	    (1.00 0.5 0.285)
	    (1.00 0.5 0.29)
	    (1.00 0.5 0.295)
	    (1.00 0.5 0.30)
	    (1.00 0.5 0.305)
	    (1.00 0.5 0.31)
	    (1.00 0.5 0.315)
	    (1.00 0.5 0.32)
	    (1.00 0.5 0.325)
	    (1.00 0.5 0.33)
	    (1.00 0.5 0.335)
	    (1.00 0.5 0.34)
	    (1.00 0.5 0.345)
	    (1.00 0.5 0.35)
	    (1.00 0.5 0.355)
	    (1.00 0.5 0.36)
	    (1.00 0.5 0.365)
	    (1.00 0.5 0.37)
	    (1.00 0.5 0.375)
	    (1.00 0.5 0.38)
	    (1.00 0.5 0.385)
	    (1.00 0.5 0.39)
	    (1.00 0.5 0.395)
	    (1.00 0.5 0.40)
	    (1.00 0.5 0.405)
	    (1.00 0.5 0.41)
	    (1.00 0.5 0.415)
	    (1.00 0.5 0.42)
	    (1.00 0.5 0.425)
	    (1.00 0.5 0.43)
	    (1.00 0.5 0.435)
	    (1.00 0.5 0.44)
	    (1.00 0.5 0.445)
	    (1.00 0.5 0.45)
	    (1.00 0.5 0.455)
	    (1.00 0.5 0.46)
	    (1.00 0.5 0.465)
	    (1.00 0.5 0.47)
	    (1.00 0.5 0.475)
	    (1.00 0.5 0.48)
	    (1.00 0.5 0.485)
	    (1.00 0.5 0.49)
	    (1.00 0.5 0.495)
	    (1.00 0.5 0.50)
	    (1.00 0.5 0.505)
	    (1.00 0.5 0.51)
	    (1.00 0.5 0.515)
	    (1.00 0.5 0.52)
	    (1.00 0.5 0.525)
	    (1.00 0.5 0.53)
	    (1.00 0.5 0.535)
	    (1.00 0.5 0.54)
	    (1.00 0.5 0.545)
	    (1.00 0.5 0.55)
	    (1.00 0.5 0.555)
	    (1.00 0.5 0.56)
	    (1.00 0.5 0.565)
	    (1.00 0.5 0.57)
	    (1.00 0.5 0.575)
	    (1.00 0.5 0.58)
	    (1.00 0.5 0.585)
	    (1.00 0.5 0.59)
	    (1.00 0.5 0.595)
	    (1.00 0.5 0.60)
	    (1.00 0.5 0.605)
	    (1.00 0.5 0.61)
	    (1.00 0.5 0.615)
	    (1.00 0.5 0.62)
	    (1.00 0.5 0.625)
	    (1.00 0.5 0.63)
	    (1.00 0.5 0.635)
	    (1.00 0.5 0.64)
	    (1.00 0.5 0.645)
	    (1.00 0.5 0.65)
	    (1.00 0.5 0.655)
	    (1.00 0.5 0.66)
	    (1.00 0.5 0.665)
	    (1.00 0.5 0.67)
	    (1.00 0.5 0.675)
	    (1.00 0.5 0.68)
	    (1.00 0.5 0.685)
	    (1.00 0.5 0.69)
	    (1.00 0.5 0.695)
	    (1.00 0.5 0.70)
	    (1.00 0.5 0.705)
	    (1.00 0.5 0.71)
	    (1.00 0.5 0.715)
	    (1.00 0.5 0.72)
	    (1.00 0.5 0.725)
	    (1.00 0.5 0.73)
	    (1.00 0.5 0.735)
	    (1.00 0.5 0.74)
	    (1.00 0.5 0.745)
	    (1.00 0.5 0.75)
	    (1.00 0.5 0.755)
	    (1.00 0.5 0.76)
	    (1.00 0.5 0.765)
	    (1.00 0.5 0.77)
	    (1.00 0.5 0.775)
	    (1.00 0.5 0.78)
	    (1.00 0.5 0.785)
	    (1.00 0.5 0.79)
	    (1.00 0.5 0.795)
	    (1.00 0.5 0.80)
	    (1.00 0.5 0.805)
	    (1.00 0.5 0.81)
	    (1.00 0.5 0.815)
	    (1.00 0.5 0.82)
	    (1.00 0.5 0.825)
	    (1.00 0.5 0.83)
	    (1.00 0.5 0.835)
	    (1.00 0.5 0.84)
	    (1.00 0.5 0.845)
	    (1.00 0.5 0.85)
	    (1.00 0.5 0.855)
	    (1.00 0.5 0.86)
	    (1.00 0.5 0.865)
	    (1.00 0.5 0.87)
	    (1.00 0.5 0.875)
	    (1.00 0.5 0.88)
	    (1.00 0.5 0.885)
	    (1.00 0.5 0.89)
	    (1.00 0.5 0.895)
	    (1.00 0.5 0.80)
	    (1.00 0.5 0.805)
	    (1.00 0.5 0.81)
	    (1.00 0.5 0.815)
	    (1.00 0.5 0.82)
	    (1.00 0.5 0.825)
	    (1.00 0.5 0.83)
	    (1.00 0.5 0.835)
	    (1.00 0.5 0.84)
	    (1.00 0.5 0.845)
	    (1.00 0.5 0.85)
	    (1.00 0.5 0.855)
	    (1.00 0.5 0.86)
	    (1.00 0.5 0.865)
	    (1.00 0.5 0.87)
	    (1.00 0.5 0.875)
	    (1.00 0.5 0.88)
	    (1.00 0.5 0.885)
	    (1.00 0.5 0.89)
	    (1.00 0.5 0.895)
	    (1.00 0.5 0.90)
	    (1.00 0.5 0.905)
	    (1.00 0.5 0.91)
	    (1.00 0.5 0.915)
	    (1.00 0.5 0.92)
	    (1.00 0.5 0.925)
	    (1.00 0.5 0.93)
	    (1.00 0.5 0.935)
	    (1.00 0.5 0.94)
	    (1.00 0.5 0.945)
	    (1.00 0.5 0.95)
	    (1.00 0.5 0.955)
	    (1.00 0.5 0.96)
	    (1.00 0.5 0.965)
	    (1.00 0.5 0.97)
	    (1.00 0.5 0.975)
	    (1.00 0.5 0.98)
	    (1.00 0.5 0.985)
	    (1.00 0.5 0.99)
	    (1.00 0.5 0.995)

	    // x=2.00
            (2.00 0.5 0.001)
	    (2.00 0.5 0.005)
            (2.00 0.5 0.01)
	    (2.00 0.5 0.015)
            (2.00 0.5 0.02)
	    (2.00 0.5 0.025)
	    (2.00 0.5 0.03)
	    (2.00 0.5 0.035)
	    (2.00 0.5 0.04)
	    (2.00 0.5 0.045)
	    (2.00 0.5 0.05)
	    (2.00 0.5 0.055)
	    (2.00 0.5 0.06)
	    (2.00 0.5 0.065)
	    (2.00 0.5 0.07)
	    (2.00 0.5 0.075)
	    (2.00 0.5 0.08)
	    (2.00 0.5 0.085)
	    (2.00 0.5 0.09)
	    (2.00 0.5 0.095)
	    (2.00 0.5 0.10)
	    (2.00 0.5 0.105)
	    (2.00 0.5 0.11)
	    (2.00 0.5 0.115)
	    (2.00 0.5 0.12)
	    (2.00 0.5 0.125)
	    (2.00 0.5 0.13)
	    (2.00 0.5 0.135)
	    (2.00 0.5 0.14)
	    (2.00 0.5 0.145)
	    (2.00 0.5 0.15)
	    (2.00 0.5 0.155)
	    (2.00 0.5 0.16)
	    (2.00 0.5 0.165)
	    (2.00 0.5 0.17)
	    (2.00 0.5 0.175)
	    (2.00 0.5 0.18)
	    (2.00 0.5 0.185)
	    (2.00 0.5 0.19)
	    (2.00 0.5 0.195)
	    (2.00 0.5 0.20)
	    (2.00 0.5 0.205)
	    (2.00 0.5 0.21)
	    (2.00 0.5 0.215)
	    (2.00 0.5 0.22)
	    (2.00 0.5 0.225)
	    (2.00 0.5 0.23)
	    (2.00 0.5 0.235)
	    (2.00 0.5 0.24)
	    (2.00 0.5 0.245)
	    (2.00 0.5 0.25)
	    (2.00 0.5 0.255)
	    (2.00 0.5 0.26)
	    (2.00 0.5 0.265)
	    (2.00 0.5 0.27)
	    (2.00 0.5 0.275)
	    (2.00 0.5 0.28)
	    (2.00 0.5 0.285)
	    (2.00 0.5 0.29)
	    (2.00 0.5 0.295)
	    (2.00 0.5 0.30)
	    (2.00 0.5 0.305)
	    (2.00 0.5 0.31)
	    (2.00 0.5 0.315)
	    (2.00 0.5 0.32)
	    (2.00 0.5 0.325)
	    (2.00 0.5 0.33)
	    (2.00 0.5 0.335)
	    (2.00 0.5 0.34)
	    (2.00 0.5 0.345)
	    (2.00 0.5 0.35)
	    (2.00 0.5 0.355)
	    (2.00 0.5 0.36)
	    (2.00 0.5 0.365)
	    (2.00 0.5 0.37)
	    (2.00 0.5 0.375)
	    (2.00 0.5 0.38)
	    (2.00 0.5 0.385)
	    (2.00 0.5 0.39)
	    (2.00 0.5 0.395)
	    (2.00 0.5 0.40)
	    (2.00 0.5 0.405)
	    (2.00 0.5 0.41)
	    (2.00 0.5 0.415)
	    (2.00 0.5 0.42)
	    (2.00 0.5 0.425)
	    (2.00 0.5 0.43)
	    (2.00 0.5 0.435)
	    (2.00 0.5 0.44)
	    (2.00 0.5 0.445)
	    (2.00 0.5 0.45)
	    (2.00 0.5 0.455)
	    (2.00 0.5 0.46)
	    (2.00 0.5 0.465)
	    (2.00 0.5 0.47)
	    (2.00 0.5 0.475)
	    (2.00 0.5 0.48)
	    (2.00 0.5 0.485)
	    (2.00 0.5 0.49)
	    (2.00 0.5 0.495)
	    (2.00 0.5 0.50)
	    (2.00 0.5 0.505)
	    (2.00 0.5 0.51)
	    (2.00 0.5 0.515)
	    (2.00 0.5 0.52)
	    (2.00 0.5 0.525)
	    (2.00 0.5 0.53)
	    (2.00 0.5 0.535)
	    (2.00 0.5 0.54)
	    (2.00 0.5 0.545)
	    (2.00 0.5 0.55)
	    (2.00 0.5 0.555)
	    (2.00 0.5 0.56)
	    (2.00 0.5 0.565)
	    (2.00 0.5 0.57)
	    (2.00 0.5 0.575)
	    (2.00 0.5 0.58)
	    (2.00 0.5 0.585)
	    (2.00 0.5 0.59)
	    (2.00 0.5 0.595)
	    (2.00 0.5 0.60)
	    (2.00 0.5 0.605)
	    (2.00 0.5 0.61)
	    (2.00 0.5 0.615)
	    (2.00 0.5 0.62)
	    (2.00 0.5 0.625)
	    (2.00 0.5 0.63)
	    (2.00 0.5 0.635)
	    (2.00 0.5 0.64)
	    (2.00 0.5 0.645)
	    (2.00 0.5 0.65)
	    (2.00 0.5 0.655)
	    (2.00 0.5 0.66)
	    (2.00 0.5 0.665)
	    (2.00 0.5 0.67)
	    (2.00 0.5 0.675)
	    (2.00 0.5 0.68)
	    (2.00 0.5 0.685)
	    (2.00 0.5 0.69)
	    (2.00 0.5 0.695)
	    (2.00 0.5 0.70)
	    (2.00 0.5 0.705)
	    (2.00 0.5 0.71)
	    (2.00 0.5 0.715)
	    (2.00 0.5 0.72)
	    (2.00 0.5 0.725)
	    (2.00 0.5 0.73)
	    (2.00 0.5 0.735)
	    (2.00 0.5 0.74)
	    (2.00 0.5 0.745)
	    (2.00 0.5 0.75)
	    (2.00 0.5 0.755)
	    (2.00 0.5 0.76)
	    (2.00 0.5 0.765)
	    (2.00 0.5 0.77)
	    (2.00 0.5 0.775)
	    (2.00 0.5 0.78)
	    (2.00 0.5 0.785)
	    (2.00 0.5 0.79)
	    (2.00 0.5 0.795)
	    (2.00 0.5 0.80)
	    (2.00 0.5 0.805)
	    (2.00 0.5 0.81)
	    (2.00 0.5 0.815)
	    (2.00 0.5 0.82)
	    (2.00 0.5 0.825)
	    (2.00 0.5 0.83)
	    (2.00 0.5 0.835)
	    (2.00 0.5 0.84)
	    (2.00 0.5 0.845)
	    (2.00 0.5 0.85)
	    (2.00 0.5 0.855)
	    (2.00 0.5 0.86)
	    (2.00 0.5 0.865)
	    (2.00 0.5 0.87)
	    (2.00 0.5 0.875)
	    (2.00 0.5 0.88)
	    (2.00 0.5 0.885)
	    (2.00 0.5 0.89)
	    (2.00 0.5 0.895)
	    (2.00 0.5 0.80)
	    (2.00 0.5 0.805)
	    (2.00 0.5 0.81)
	    (2.00 0.5 0.815)
	    (2.00 0.5 0.82)
	    (2.00 0.5 0.825)
	    (2.00 0.5 0.83)
	    (2.00 0.5 0.835)
	    (2.00 0.5 0.84)
	    (2.00 0.5 0.845)
	    (2.00 0.5 0.85)
	    (2.00 0.5 0.855)
	    (2.00 0.5 0.86)
	    (2.00 0.5 0.865)
	    (2.00 0.5 0.87)
	    (2.00 0.5 0.875)
	    (2.00 0.5 0.88)
	    (2.00 0.5 0.885)
	    (2.00 0.5 0.89)
	    (2.00 0.5 0.895)
	    (2.00 0.5 0.90)
	    (2.00 0.5 0.905)
	    (2.00 0.5 0.91)
	    (2.00 0.5 0.915)
	    (2.00 0.5 0.92)
	    (2.00 0.5 0.925)
	    (2.00 0.5 0.93)
	    (2.00 0.5 0.935)
	    (2.00 0.5 0.94)
	    (2.00 0.5 0.945)
	    (2.00 0.5 0.95)
	    (2.00 0.5 0.955)
	    (2.00 0.5 0.96)
	    (2.00 0.5 0.965)
	    (2.00 0.5 0.97)
	    (2.00 0.5 0.975)
	    (2.00 0.5 0.98)
	    (2.00 0.5 0.985)
	    (2.00 0.5 0.99)
	    (2.00 0.5 0.995)

	    // x=3.00
            (3.00 0.5 0.001)
	    (3.00 0.5 0.005)
            (3.00 0.5 0.01)
	    (3.00 0.5 0.015)
            (3.00 0.5 0.02)
	    (3.00 0.5 0.025)
	    (3.00 0.5 0.03)
	    (3.00 0.5 0.035)
	    (3.00 0.5 0.04)
	    (3.00 0.5 0.045)
	    (3.00 0.5 0.05)
	    (3.00 0.5 0.055)
	    (3.00 0.5 0.06)
	    (3.00 0.5 0.065)
	    (3.00 0.5 0.07)
	    (3.00 0.5 0.075)
	    (3.00 0.5 0.08)
	    (3.00 0.5 0.085)
	    (3.00 0.5 0.09)
	    (3.00 0.5 0.095)
	    (3.00 0.5 0.10)
	    (3.00 0.5 0.105)
	    (3.00 0.5 0.11)
	    (3.00 0.5 0.115)
	    (3.00 0.5 0.12)
	    (3.00 0.5 0.125)
	    (3.00 0.5 0.13)
	    (3.00 0.5 0.135)
	    (3.00 0.5 0.14)
	    (3.00 0.5 0.145)
	    (3.00 0.5 0.15)
	    (3.00 0.5 0.155)
	    (3.00 0.5 0.16)
	    (3.00 0.5 0.165)
	    (3.00 0.5 0.17)
	    (3.00 0.5 0.175)
	    (3.00 0.5 0.18)
	    (3.00 0.5 0.185)
	    (3.00 0.5 0.19)
	    (3.00 0.5 0.195)
	    (3.00 0.5 0.20)
	    (3.00 0.5 0.205)
	    (3.00 0.5 0.21)
	    (3.00 0.5 0.215)
	    (3.00 0.5 0.22)
	    (3.00 0.5 0.225)
	    (3.00 0.5 0.23)
	    (3.00 0.5 0.235)
	    (3.00 0.5 0.24)
	    (3.00 0.5 0.245)
	    (3.00 0.5 0.25)
	    (3.00 0.5 0.255)
	    (3.00 0.5 0.26)
	    (3.00 0.5 0.265)
	    (3.00 0.5 0.27)
	    (3.00 0.5 0.275)
	    (3.00 0.5 0.28)
	    (3.00 0.5 0.285)
	    (3.00 0.5 0.29)
	    (3.00 0.5 0.295)
	    (3.00 0.5 0.30)
	    (3.00 0.5 0.305)
	    (3.00 0.5 0.31)
	    (3.00 0.5 0.315)
	    (3.00 0.5 0.32)
	    (3.00 0.5 0.325)
	    (3.00 0.5 0.33)
	    (3.00 0.5 0.335)
	    (3.00 0.5 0.34)
	    (3.00 0.5 0.345)
	    (3.00 0.5 0.35)
	    (3.00 0.5 0.355)
	    (3.00 0.5 0.36)
	    (3.00 0.5 0.365)
	    (3.00 0.5 0.37)
	    (3.00 0.5 0.375)
	    (3.00 0.5 0.38)
	    (3.00 0.5 0.385)
	    (3.00 0.5 0.39)
	    (3.00 0.5 0.395)
	    (3.00 0.5 0.40)
	    (3.00 0.5 0.405)
	    (3.00 0.5 0.41)
	    (3.00 0.5 0.415)
	    (3.00 0.5 0.42)
	    (3.00 0.5 0.425)
	    (3.00 0.5 0.43)
	    (3.00 0.5 0.435)
	    (3.00 0.5 0.44)
	    (3.00 0.5 0.445)
	    (3.00 0.5 0.45)
	    (3.00 0.5 0.455)
	    (3.00 0.5 0.46)
	    (3.00 0.5 0.465)
	    (3.00 0.5 0.47)
	    (3.00 0.5 0.475)
	    (3.00 0.5 0.48)
	    (3.00 0.5 0.485)
	    (3.00 0.5 0.49)
	    (3.00 0.5 0.495)
	    (3.00 0.5 0.50)
	    (3.00 0.5 0.505)
	    (3.00 0.5 0.51)
	    (3.00 0.5 0.515)
	    (3.00 0.5 0.52)
	    (3.00 0.5 0.525)
	    (3.00 0.5 0.53)
	    (3.00 0.5 0.535)
	    (3.00 0.5 0.54)
	    (3.00 0.5 0.545)
	    (3.00 0.5 0.55)
	    (3.00 0.5 0.555)
	    (3.00 0.5 0.56)
	    (3.00 0.5 0.565)
	    (3.00 0.5 0.57)
	    (3.00 0.5 0.575)
	    (3.00 0.5 0.58)
	    (3.00 0.5 0.585)
	    (3.00 0.5 0.59)
	    (3.00 0.5 0.595)
	    (3.00 0.5 0.60)
	    (3.00 0.5 0.605)
	    (3.00 0.5 0.61)
	    (3.00 0.5 0.615)
	    (3.00 0.5 0.62)
	    (3.00 0.5 0.625)
	    (3.00 0.5 0.63)
	    (3.00 0.5 0.635)
	    (3.00 0.5 0.64)
	    (3.00 0.5 0.645)
	    (3.00 0.5 0.65)
	    (3.00 0.5 0.655)
	    (3.00 0.5 0.66)
	    (3.00 0.5 0.665)
	    (3.00 0.5 0.67)
	    (3.00 0.5 0.675)
	    (3.00 0.5 0.68)
	    (3.00 0.5 0.685)
	    (3.00 0.5 0.69)
	    (3.00 0.5 0.695)
	    (3.00 0.5 0.70)
	    (3.00 0.5 0.705)
	    (3.00 0.5 0.71)
	    (3.00 0.5 0.715)
	    (3.00 0.5 0.72)
	    (3.00 0.5 0.725)
	    (3.00 0.5 0.73)
	    (3.00 0.5 0.735)
	    (3.00 0.5 0.74)
	    (3.00 0.5 0.745)
	    (3.00 0.5 0.75)
	    (3.00 0.5 0.755)
	    (3.00 0.5 0.76)
	    (3.00 0.5 0.765)
	    (3.00 0.5 0.77)
	    (3.00 0.5 0.775)
	    (3.00 0.5 0.78)
	    (3.00 0.5 0.785)
	    (3.00 0.5 0.79)
	    (3.00 0.5 0.795)
	    (3.00 0.5 0.80)
	    (3.00 0.5 0.805)
	    (3.00 0.5 0.81)
	    (3.00 0.5 0.815)
	    (3.00 0.5 0.82)
	    (3.00 0.5 0.825)
	    (3.00 0.5 0.83)
	    (3.00 0.5 0.835)
	    (3.00 0.5 0.84)
	    (3.00 0.5 0.845)
	    (3.00 0.5 0.85)
	    (3.00 0.5 0.855)
	    (3.00 0.5 0.86)
	    (3.00 0.5 0.865)
	    (3.00 0.5 0.87)
	    (3.00 0.5 0.875)
	    (3.00 0.5 0.88)
	    (3.00 0.5 0.885)
	    (3.00 0.5 0.89)
	    (3.00 0.5 0.895)
	    (3.00 0.5 0.80)
	    (3.00 0.5 0.805)
	    (3.00 0.5 0.81)
	    (3.00 0.5 0.815)
	    (3.00 0.5 0.82)
	    (3.00 0.5 0.825)
	    (3.00 0.5 0.83)
	    (3.00 0.5 0.835)
	    (3.00 0.5 0.84)
	    (3.00 0.5 0.845)
	    (3.00 0.5 0.85)
	    (3.00 0.5 0.855)
	    (3.00 0.5 0.86)
	    (3.00 0.5 0.865)
	    (3.00 0.5 0.87)
	    (3.00 0.5 0.875)
	    (3.00 0.5 0.88)
	    (3.00 0.5 0.885)
	    (3.00 0.5 0.89)
	    (3.00 0.5 0.895)
	    (3.00 0.5 0.90)
	    (3.00 0.5 0.905)
	    (3.00 0.5 0.91)
	    (3.00 0.5 0.915)
	    (3.00 0.5 0.92)
	    (3.00 0.5 0.925)
	    (3.00 0.5 0.93)
	    (3.00 0.5 0.935)
	    (3.00 0.5 0.94)
	    (3.00 0.5 0.945)
	    (3.00 0.5 0.95)
	    (3.00 0.5 0.955)
	    (3.00 0.5 0.96)
	    (3.00 0.5 0.965)
	    (3.00 0.5 0.97)
	    (3.00 0.5 0.975)
	    (3.00 0.5 0.98)
	    (3.00 0.5 0.985)
	    (3.00 0.5 0.99)
	    (3.00 0.5 0.995)

	    // x=4.00
            (4.00 0.5 0.001)
	    (4.00 0.5 0.005)
            (4.00 0.5 0.01)
	    (4.00 0.5 0.015)
            (4.00 0.5 0.02)
	    (4.00 0.5 0.025)
	    (4.00 0.5 0.03)
	    (4.00 0.5 0.035)
	    (4.00 0.5 0.04)
	    (4.00 0.5 0.045)
	    (4.00 0.5 0.05)
	    (4.00 0.5 0.055)
	    (4.00 0.5 0.06)
	    (4.00 0.5 0.065)
	    (4.00 0.5 0.07)
	    (4.00 0.5 0.075)
	    (4.00 0.5 0.08)
	    (4.00 0.5 0.085)
	    (4.00 0.5 0.09)
	    (4.00 0.5 0.095)
	    (4.00 0.5 0.10)
	    (4.00 0.5 0.105)
	    (4.00 0.5 0.11)
	    (4.00 0.5 0.115)
	    (4.00 0.5 0.12)
	    (4.00 0.5 0.125)
	    (4.00 0.5 0.13)
	    (4.00 0.5 0.135)
	    (4.00 0.5 0.14)
	    (4.00 0.5 0.145)
	    (4.00 0.5 0.15)
	    (4.00 0.5 0.155)
	    (4.00 0.5 0.16)
	    (4.00 0.5 0.165)
	    (4.00 0.5 0.17)
	    (4.00 0.5 0.175)
	    (4.00 0.5 0.18)
	    (4.00 0.5 0.185)
	    (4.00 0.5 0.19)
	    (4.00 0.5 0.195)
	    (4.00 0.5 0.20)
	    (4.00 0.5 0.205)
	    (4.00 0.5 0.21)
	    (4.00 0.5 0.215)
	    (4.00 0.5 0.22)
	    (4.00 0.5 0.225)
	    (4.00 0.5 0.23)
	    (4.00 0.5 0.235)
	    (4.00 0.5 0.24)
	    (4.00 0.5 0.245)
	    (4.00 0.5 0.25)
	    (4.00 0.5 0.255)
	    (4.00 0.5 0.26)
	    (4.00 0.5 0.265)
	    (4.00 0.5 0.27)
	    (4.00 0.5 0.275)
	    (4.00 0.5 0.28)
	    (4.00 0.5 0.285)
	    (4.00 0.5 0.29)
	    (4.00 0.5 0.295)
	    (4.00 0.5 0.30)
	    (4.00 0.5 0.305)
	    (4.00 0.5 0.31)
	    (4.00 0.5 0.315)
	    (4.00 0.5 0.32)
	    (4.00 0.5 0.325)
	    (4.00 0.5 0.33)
	    (4.00 0.5 0.335)
	    (4.00 0.5 0.34)
	    (4.00 0.5 0.345)
	    (4.00 0.5 0.35)
	    (4.00 0.5 0.355)
	    (4.00 0.5 0.36)
	    (4.00 0.5 0.365)
	    (4.00 0.5 0.37)
	    (4.00 0.5 0.375)
	    (4.00 0.5 0.38)
	    (4.00 0.5 0.385)
	    (4.00 0.5 0.39)
	    (4.00 0.5 0.395)
	    (4.00 0.5 0.40)
	    (4.00 0.5 0.405)
	    (4.00 0.5 0.41)
	    (4.00 0.5 0.415)
	    (4.00 0.5 0.42)
	    (4.00 0.5 0.425)
	    (4.00 0.5 0.43)
	    (4.00 0.5 0.435)
	    (4.00 0.5 0.44)
	    (4.00 0.5 0.445)
	    (4.00 0.5 0.45)
	    (4.00 0.5 0.455)
	    (4.00 0.5 0.46)
	    (4.00 0.5 0.465)
	    (4.00 0.5 0.47)
	    (4.00 0.5 0.475)
	    (4.00 0.5 0.48)
	    (4.00 0.5 0.485)
	    (4.00 0.5 0.49)
	    (4.00 0.5 0.495)
	    (4.00 0.5 0.50)
	    (4.00 0.5 0.505)
	    (4.00 0.5 0.51)
	    (4.00 0.5 0.515)
	    (4.00 0.5 0.52)
	    (4.00 0.5 0.525)
	    (4.00 0.5 0.53)
	    (4.00 0.5 0.535)
	    (4.00 0.5 0.54)
	    (4.00 0.5 0.545)
	    (4.00 0.5 0.55)
	    (4.00 0.5 0.555)
	    (4.00 0.5 0.56)
	    (4.00 0.5 0.565)
	    (4.00 0.5 0.57)
	    (4.00 0.5 0.575)
	    (4.00 0.5 0.58)
	    (4.00 0.5 0.585)
	    (4.00 0.5 0.59)
	    (4.00 0.5 0.595)
	    (4.00 0.5 0.60)
	    (4.00 0.5 0.605)
	    (4.00 0.5 0.61)
	    (4.00 0.5 0.615)
	    (4.00 0.5 0.62)
	    (4.00 0.5 0.625)
	    (4.00 0.5 0.63)
	    (4.00 0.5 0.635)
	    (4.00 0.5 0.64)
	    (4.00 0.5 0.645)
	    (4.00 0.5 0.65)
	    (4.00 0.5 0.655)
	    (4.00 0.5 0.66)
	    (4.00 0.5 0.665)
	    (4.00 0.5 0.67)
	    (4.00 0.5 0.675)
	    (4.00 0.5 0.68)
	    (4.00 0.5 0.685)
	    (4.00 0.5 0.69)
	    (4.00 0.5 0.695)
	    (4.00 0.5 0.70)
	    (4.00 0.5 0.705)
	    (4.00 0.5 0.71)
	    (4.00 0.5 0.715)
	    (4.00 0.5 0.72)
	    (4.00 0.5 0.725)
	    (4.00 0.5 0.73)
	    (4.00 0.5 0.735)
	    (4.00 0.5 0.74)
	    (4.00 0.5 0.745)
	    (4.00 0.5 0.75)
	    (4.00 0.5 0.755)
	    (4.00 0.5 0.76)
	    (4.00 0.5 0.765)
	    (4.00 0.5 0.77)
	    (4.00 0.5 0.775)
	    (4.00 0.5 0.78)
	    (4.00 0.5 0.785)
	    (4.00 0.5 0.79)
	    (4.00 0.5 0.795)
	    (4.00 0.5 0.80)
	    (4.00 0.5 0.805)
	    (4.00 0.5 0.81)
	    (4.00 0.5 0.815)
	    (4.00 0.5 0.82)
	    (4.00 0.5 0.825)
	    (4.00 0.5 0.83)
	    (4.00 0.5 0.835)
	    (4.00 0.5 0.84)
	    (4.00 0.5 0.845)
	    (4.00 0.5 0.85)
	    (4.00 0.5 0.855)
	    (4.00 0.5 0.86)
	    (4.00 0.5 0.865)
	    (4.00 0.5 0.87)
	    (4.00 0.5 0.875)
	    (4.00 0.5 0.88)
	    (4.00 0.5 0.885)
	    (4.00 0.5 0.89)
	    (4.00 0.5 0.895)
	    (4.00 0.5 0.80)
	    (4.00 0.5 0.805)
	    (4.00 0.5 0.81)
	    (4.00 0.5 0.815)
	    (4.00 0.5 0.82)
	    (4.00 0.5 0.825)
	    (4.00 0.5 0.83)
	    (4.00 0.5 0.835)
	    (4.00 0.5 0.84)
	    (4.00 0.5 0.845)
	    (4.00 0.5 0.85)
	    (4.00 0.5 0.855)
	    (4.00 0.5 0.86)
	    (4.00 0.5 0.865)
	    (4.00 0.5 0.87)
	    (4.00 0.5 0.875)
	    (4.00 0.5 0.88)
	    (4.00 0.5 0.885)
	    (4.00 0.5 0.89)
	    (4.00 0.5 0.895)
	    (4.00 0.5 0.90)
	    (4.00 0.5 0.905)
	    (4.00 0.5 0.91)
	    (4.00 0.5 0.915)
	    (4.00 0.5 0.92)
	    (4.00 0.5 0.925)
	    (4.00 0.5 0.93)
	    (4.00 0.5 0.935)
	    (4.00 0.5 0.94)
	    (4.00 0.5 0.945)
	    (4.00 0.5 0.95)
	    (4.00 0.5 0.955)
	    (4.00 0.5 0.96)
	    (4.00 0.5 0.965)
	    (4.00 0.5 0.97)
	    (4.00 0.5 0.975)
	    (4.00 0.5 0.98)
	    (4.00 0.5 0.985)
	    (4.00 0.5 0.99)
	    (4.00 0.5 0.995)

	    // x=4.99
            (4.99 0.5 0.001)
	    (4.99 0.5 0.005)
            (4.99 0.5 0.01)
	    (4.99 0.5 0.015)
            (4.99 0.5 0.02)
	    (4.99 0.5 0.025)
	    (4.99 0.5 0.03)
	    (4.99 0.5 0.035)
	    (4.99 0.5 0.04)
	    (4.99 0.5 0.045)
	    (4.99 0.5 0.05)
	    (4.99 0.5 0.055)
	    (4.99 0.5 0.06)
	    (4.99 0.5 0.065)
	    (4.99 0.5 0.07)
	    (4.99 0.5 0.075)
	    (4.99 0.5 0.08)
	    (4.99 0.5 0.085)
	    (4.99 0.5 0.09)
	    (4.99 0.5 0.095)
	    (4.99 0.5 0.10)
	    (4.99 0.5 0.105)
	    (4.99 0.5 0.11)
	    (4.99 0.5 0.115)
	    (4.99 0.5 0.12)
	    (4.99 0.5 0.125)
	    (4.99 0.5 0.13)
	    (4.99 0.5 0.135)
	    (4.99 0.5 0.14)
	    (4.99 0.5 0.145)
	    (4.99 0.5 0.15)
	    (4.99 0.5 0.155)
	    (4.99 0.5 0.16)
	    (4.99 0.5 0.165)
	    (4.99 0.5 0.17)
	    (4.99 0.5 0.175)
	    (4.99 0.5 0.18)
	    (4.99 0.5 0.185)
	    (4.99 0.5 0.19)
	    (4.99 0.5 0.195)
	    (4.99 0.5 0.20)
	    (4.99 0.5 0.205)
	    (4.99 0.5 0.21)
	    (4.99 0.5 0.215)
	    (4.99 0.5 0.22)
	    (4.99 0.5 0.225)
	    (4.99 0.5 0.23)
	    (4.99 0.5 0.235)
	    (4.99 0.5 0.24)
	    (4.99 0.5 0.245)
	    (4.99 0.5 0.25)
	    (4.99 0.5 0.255)
	    (4.99 0.5 0.26)
	    (4.99 0.5 0.265)
	    (4.99 0.5 0.27)
	    (4.99 0.5 0.275)
	    (4.99 0.5 0.28)
	    (4.99 0.5 0.285)
	    (4.99 0.5 0.29)
	    (4.99 0.5 0.295)
	    (4.99 0.5 0.30)
	    (4.99 0.5 0.305)
	    (4.99 0.5 0.31)
	    (4.99 0.5 0.315)
	    (4.99 0.5 0.32)
	    (4.99 0.5 0.325)
	    (4.99 0.5 0.33)
	    (4.99 0.5 0.335)
	    (4.99 0.5 0.34)
	    (4.99 0.5 0.345)
	    (4.99 0.5 0.35)
	    (4.99 0.5 0.355)
	    (4.99 0.5 0.36)
	    (4.99 0.5 0.365)
	    (4.99 0.5 0.37)
	    (4.99 0.5 0.375)
	    (4.99 0.5 0.38)
	    (4.99 0.5 0.385)
	    (4.99 0.5 0.39)
	    (4.99 0.5 0.395)
	    (4.99 0.5 0.40)
	    (4.99 0.5 0.405)
	    (4.99 0.5 0.41)
	    (4.99 0.5 0.415)
	    (4.99 0.5 0.42)
	    (4.99 0.5 0.425)
	    (4.99 0.5 0.43)
	    (4.99 0.5 0.435)
	    (4.99 0.5 0.44)
	    (4.99 0.5 0.445)
	    (4.99 0.5 0.45)
	    (4.99 0.5 0.455)
	    (4.99 0.5 0.46)
	    (4.99 0.5 0.465)
	    (4.99 0.5 0.47)
	    (4.99 0.5 0.475)
	    (4.99 0.5 0.48)
	    (4.99 0.5 0.485)
	    (4.99 0.5 0.49)
	    (4.99 0.5 0.495)
	    (4.99 0.5 0.50)
	    (4.99 0.5 0.505)
	    (4.99 0.5 0.51)
	    (4.99 0.5 0.515)
	    (4.99 0.5 0.52)
	    (4.99 0.5 0.525)
	    (4.99 0.5 0.53)
	    (4.99 0.5 0.535)
	    (4.99 0.5 0.54)
	    (4.99 0.5 0.545)
	    (4.99 0.5 0.55)
	    (4.99 0.5 0.555)
	    (4.99 0.5 0.56)
	    (4.99 0.5 0.565)
	    (4.99 0.5 0.57)
	    (4.99 0.5 0.575)
	    (4.99 0.5 0.58)
	    (4.99 0.5 0.585)
	    (4.99 0.5 0.59)
	    (4.99 0.5 0.595)
	    (4.99 0.5 0.60)
	    (4.99 0.5 0.605)
	    (4.99 0.5 0.61)
	    (4.99 0.5 0.615)
	    (4.99 0.5 0.62)
	    (4.99 0.5 0.625)
	    (4.99 0.5 0.63)
	    (4.99 0.5 0.635)
	    (4.99 0.5 0.64)
	    (4.99 0.5 0.645)
	    (4.99 0.5 0.65)
	    (4.99 0.5 0.655)
	    (4.99 0.5 0.66)
	    (4.99 0.5 0.665)
	    (4.99 0.5 0.67)
	    (4.99 0.5 0.675)
	    (4.99 0.5 0.68)
	    (4.99 0.5 0.685)
	    (4.99 0.5 0.69)
	    (4.99 0.5 0.695)
	    (4.99 0.5 0.70)
	    (4.99 0.5 0.705)
	    (4.99 0.5 0.71)
	    (4.99 0.5 0.715)
	    (4.99 0.5 0.72)
	    (4.99 0.5 0.725)
	    (4.99 0.5 0.73)
	    (4.99 0.5 0.735)
	    (4.99 0.5 0.74)
	    (4.99 0.5 0.745)
	    (4.99 0.5 0.75)
	    (4.99 0.5 0.755)
	    (4.99 0.5 0.76)
	    (4.99 0.5 0.765)
	    (4.99 0.5 0.77)
	    (4.99 0.5 0.775)
	    (4.99 0.5 0.78)
	    (4.99 0.5 0.785)
	    (4.99 0.5 0.79)
	    (4.99 0.5 0.795)
	    (4.99 0.5 0.80)
	    (4.99 0.5 0.805)
	    (4.99 0.5 0.81)
	    (4.99 0.5 0.815)
	    (4.99 0.5 0.82)
	    (4.99 0.5 0.825)
	    (4.99 0.5 0.83)
	    (4.99 0.5 0.835)
	    (4.99 0.5 0.84)
	    (4.99 0.5 0.845)
	    (4.99 0.5 0.85)
	    (4.99 0.5 0.855)
	    (4.99 0.5 0.86)
	    (4.99 0.5 0.865)
	    (4.99 0.5 0.87)
	    (4.99 0.5 0.875)
	    (4.99 0.5 0.88)
	    (4.99 0.5 0.885)
	    (4.99 0.5 0.89)
	    (4.99 0.5 0.895)
	    (4.99 0.5 0.80)
	    (4.99 0.5 0.805)
	    (4.99 0.5 0.81)
	    (4.99 0.5 0.815)
	    (4.99 0.5 0.82)
	    (4.99 0.5 0.825)
	    (4.99 0.5 0.83)
	    (4.99 0.5 0.835)
	    (4.99 0.5 0.84)
	    (4.99 0.5 0.845)
	    (4.99 0.5 0.85)
	    (4.99 0.5 0.855)
	    (4.99 0.5 0.86)
	    (4.99 0.5 0.865)
	    (4.99 0.5 0.87)
	    (4.99 0.5 0.875)
	    (4.99 0.5 0.88)
	    (4.99 0.5 0.885)
	    (4.99 0.5 0.89)
	    (4.99 0.5 0.895)
	    (4.99 0.5 0.90)
	    (4.99 0.5 0.905)
	    (4.99 0.5 0.91)
	    (4.99 0.5 0.915)